<configuration>
    <input>
        <net-file value="spacedoutroads.net.xml"/>
        <route-files value="uneven.rou.xml"/>
        <gui-settings-file value="vehicles.settings.xml"/>
    </input>
    <time>
        <begin value="0"/>
        <end value="10000000"/>
    </time>
</configuration>