<?xml version="1.0" encoding="UTF-8"?>

<!-- generated on Thu 07 Mar 2019 03:53:55 PM +03 by Eclipse SUMO netedit Version 1.1.0
<configuration xmlns:xsi="http://www.w3.org/2001/XMLSchema-instance" xsi:noNamespaceSchemaLocation="http://sumo.dlr.de/xsd/netconvertConfiguration.xsd">

    <input>
        <sumo-net-file value="/home/gvantini/GHARRAFA/gharrafa4.net.xml"/>
    </input>

    <output>
        <output-file value="/home/gvantini/GHARRAFA/gharrafa_2019_03_07.net.xml"/>
    </output>

    <processing>
        <geometry.max-grade.fix value="false"/>
        <offset.disable-normalization value="true"/>
        <lefthand value="false"/>
    </processing>

    <junctions>
        <no-turnarounds value="true"/>
        <junctions.corner-detail value="0"/>
        <junctions.limit-turn-speed value="-1"/>
        <rectangular-lane-cut value="false"/>
    </junctions>

    <pedestrian>
        <walkingareas value="false"/>
    </pedestrian>

    <visualisation>
        <registry-viewport value="true"/>
    </visualisation>

</configuration>
-->

<net version="1.1" xmlns:xsi="http://www.w3.org/2001/XMLSchema-instance" xsi:noNamespaceSchemaLocation="http://sumo.dlr.de/xsd/net_file.xsd">

    <location netOffset="-545016.58,-2801341.78" convBoundary="0.00,0.00,2376.00,3364.77" origBoundary="51.446387,25.327948,51.470958,25.358369" projParameter="+proj=utm +zone=39 +ellps=WGS84 +datum=WGS84 +units=m +no_defs"/>

    <edge id=":10427_0" function="internal">
        <lane id=":10427_0_0" index="0" speed="18.05" length="60.69" shape="347.40,1508.50 339.44,1514.87 325.34,1526.51 310.67,1538.93 301.02,1547.63"/>
    </edge>
    <edge id=":10427_1" function="internal">
        <lane id=":10427_1_0" index="0" speed="19.44" length="60.65" shape="344.89,1505.76 301.02,1547.63"/>
        <lane id=":10427_1_1" index="1" speed="19.44" length="60.65" shape="342.62,1503.50 298.75,1545.38"/>
        <lane id=":10427_1_2" index="2" speed="19.44" length="60.65" shape="340.35,1501.25 298.75,1545.38"/>
    </edge>
    <edge id=":10430_0" function="internal">
        <lane id=":10430_0_0" index="0" speed="22.22" length="1.76" shape="320.40,1507.52 320.61,1507.31"/>
        <lane id=":10430_0_1" index="1" speed="22.22" length="1.76" shape="320.40,1507.52 322.88,1509.56"/>
        <lane id=":10430_0_2" index="2" speed="22.22" length="1.76" shape="322.67,1509.77 320.61,1507.31"/>
        <lane id=":10430_0_3" index="3" speed="22.22" length="1.76" shape="322.67,1509.77 322.88,1509.56"/>
    </edge>
    <edge id=":10444_0" function="internal">
        <lane id=":10444_0_0" index="0" speed="9.71" length="8.62" shape="546.86,1941.68 548.31,1939.57 549.27,1938.10 550.13,1936.58 551.29,1934.30"/>
    </edge>
    <edge id=":10444_1" function="internal">
        <lane id=":10444_1_0" index="0" speed="5.55" length="9.14" shape="551.12,1943.09 550.39,1940.48 550.04,1938.58 550.27,1936.73 551.29,1934.30"/>
    </edge>
    <edge id=":10446_0" function="internal">
        <lane id=":10446_0_0" index="0" speed="9.71" length="9.57" shape="554.75,1929.26 561.24,1922.22"/>
    </edge>
    <edge id=":10446_1" function="internal">
        <lane id=":10446_1_0" index="0" speed="5.55" length="10.04" shape="554.75,1929.26 556.76,1927.61 558.94,1926.50 561.31,1925.91 563.86,1925.85"/>
    </edge>
    <edge id=":10447_0" function="internal">
        <lane id=":10447_0_0" index="0" speed="12.50" length="13.76" shape="572.35,1954.49 567.88,1953.57 564.27,1953.57 561.51,1954.52 559.61,1956.39"/>
    </edge>
    <edge id=":10447_1" function="internal">
        <lane id=":10447_1_0" index="0" speed="8.33" length="15.53" shape="572.35,1954.49 568.62,1953.59 564.75,1952.78 560.94,1951.82 557.37,1950.50"/>
    </edge>
    <edge id=":10447_2" function="internal">
        <lane id=":10447_2_0" index="0" speed="9.71" length="14.88" shape="572.22,1948.77 569.13,1950.86 565.58,1952.32 562.20,1953.91 559.61,1956.39"/>
    </edge>
    <edge id=":10447_3" function="internal">
        <lane id=":10447_3_0" index="0" speed="5.55" length="16.02" shape="572.22,1948.77 569.07,1951.10 565.55,1952.16 561.65,1951.96 557.37,1950.50"/>
    </edge>
    <edge id=":10449_0" function="internal">
        <lane id=":10449_0_0" index="0" speed="9.71" length="7.06" shape="577.54,1928.71 576.59,1930.41 576.04,1932.10 575.89,1933.76 576.13,1935.41"/>
    </edge>
    <edge id=":10449_1" function="internal">
        <lane id=":10449_1_0" index="0" speed="5.55" length="7.93" shape="572.02,1928.93 573.83,1930.38 574.86,1931.63 575.50,1933.15 576.13,1935.41"/>
    </edge>
    <edge id=":10450_0" function="internal">
        <lane id=":10450_0_0" index="0" speed="8.33" length="7.34" shape="576.64,1939.34 576.64,1941.46 577.03,1942.89 577.76,1944.26 578.78,1946.19"/>
    </edge>
    <edge id=":10450_1" function="internal">
        <lane id=":10450_1_0" index="0" speed="5.55" length="7.53" shape="576.64,1939.34 576.45,1941.56 576.16,1943.09 575.53,1944.49 574.33,1946.35"/>
    </edge>
    <edge id=":10451_0" function="internal">
        <lane id=":10451_0_0" index="0" speed="11.11" length="7.38" shape="600.13,1966.17 598.16,1965.21 596.86,1964.45 595.68,1963.52 594.06,1962.05"/>
    </edge>
    <edge id=":10451_1" function="internal">
        <lane id=":10451_1_0" index="0" speed="11.11" length="7.57" shape="594.35,1960.93 596.55,1961.37 598.04,1961.77 599.47,1962.33 601.50,1963.29"/>
    </edge>
    <edge id=":10452_0" function="internal">
        <lane id=":10452_0_0" index="0" speed="13.88" length="0.59" shape="628.62,1852.63 628.34,1853.15"/>
    </edge>
    <edge id=":10452_1" function="internal">
        <lane id=":10452_1_0" index="0" speed="13.88" length="2.34" shape="628.62,1852.63 627.30,1853.20 626.41,1853.10"/>
    </edge>
    <edge id=":10452_4" function="internal">
        <lane id=":10452_4_0" index="0" speed="13.88" length="2.34" shape="626.41,1853.10 625.95,1852.33 625.94,1850.89"/>
    </edge>
    <edge id=":10452_2" function="internal">
        <lane id=":10452_2_0" index="0" speed="13.88" length="0.54" shape="625.60,1851.31 625.70,1851.19 625.78,1851.11 625.85,1851.02 625.94,1850.89"/>
    </edge>
    <edge id=":10452_3" function="internal">
        <lane id=":10452_3_0" index="0" speed="13.88" length="2.41" shape="625.60,1851.31 626.97,1850.74 627.89,1850.86"/>
    </edge>
    <edge id=":10452_5" function="internal">
        <lane id=":10452_5_0" index="0" speed="13.88" length="2.41" shape="627.89,1850.86 628.35,1851.66 628.34,1853.15"/>
    </edge>
    <edge id=":10453_0" function="internal">
        <lane id=":10453_0_0" index="0" speed="13.88" length="0.10" shape="659.97,1804.38 660.01,1804.32"/>
    </edge>
    <edge id=":10453_1" function="internal">
        <lane id=":10453_1_0" index="0" speed="13.88" length="2.34" shape="659.97,1804.38 658.62,1804.89 657.74,1804.75"/>
    </edge>
    <edge id=":10453_4" function="internal">
        <lane id=":10453_4_0" index="0" speed="13.88" length="2.34" shape="657.74,1804.75 657.32,1803.96 657.37,1802.52"/>
    </edge>
    <edge id=":10453_2" function="internal">
        <lane id=":10453_2_0" index="0" speed="13.88" length="0.10" shape="657.33,1802.58 657.37,1802.52"/>
    </edge>
    <edge id=":10453_3" function="internal">
        <lane id=":10453_3_0" index="0" speed="13.88" length="2.34" shape="657.33,1802.58 658.65,1802.01 659.54,1802.11"/>
    </edge>
    <edge id=":10453_5" function="internal">
        <lane id=":10453_5_0" index="0" speed="13.88" length="2.34" shape="659.54,1802.11 659.99,1802.88 660.01,1804.32"/>
    </edge>
    <edge id=":10454_0" function="internal">
        <lane id=":10454_0_0" index="0" speed="11.11" length="3.65" shape="745.48,1674.41 744.63,1675.08 744.10,1675.61 743.67,1676.22 743.15,1677.17"/>
    </edge>
    <edge id=":10454_1" function="internal">
        <lane id=":10454_1_0" index="0" speed="11.11" length="4.04" shape="740.33,1675.66 740.89,1674.60 741.23,1673.85 741.43,1673.05 741.59,1671.87"/>
    </edge>
    <edge id=":10455_0" function="internal">
        <lane id=":10455_0_0" index="0" speed="11.11" length="5.46" shape="846.30,2085.03 845.23,2083.81 844.48,2082.97 843.61,2082.29 842.20,2081.54"/>
    </edge>
    <edge id=":10455_1" function="internal">
        <lane id=":10455_1_0" index="0" speed="11.11" length="11.09" shape="843.57,2078.65 846.37,2080.08 848.50,2081.23 850.69,2082.22 853.67,2083.17"/>
    </edge>
    <edge id=":10456_0" function="internal">
        <lane id=":10456_0_0" index="0" speed="8.33" length="7.58" shape="854.31,2099.77 854.00,2097.58 853.48,2096.13 852.68,2094.78 851.53,2092.84"/>
    </edge>
    <edge id=":10456_1" function="internal">
        <lane id=":10456_1_0" index="0" speed="5.55" length="8.20" shape="854.31,2099.77 854.12,2097.35 854.19,2095.64 854.75,2094.06 856.03,2092.04"/>
    </edge>
    <edge id=":10457_0" function="internal">
        <lane id=":10457_0_0" index="0" speed="5.55" length="14.28" shape="862.29,2110.75 859.04,2109.01 856.63,2106.61 855.05,2103.57 854.32,2099.88"/>
    </edge>
    <edge id=":10457_1" function="internal">
        <lane id=":10457_1_0" index="0" speed="11.11" length="13.32" shape="852.07,2112.81 852.84,2108.75 853.66,2105.77 854.25,2103.09 854.32,2099.88"/>
        <lane id=":10457_1_1" index="1" speed="11.11" length="13.32" shape="855.25,2113.23 855.52,2109.04 855.26,2105.93 854.75,2103.13 854.32,2099.88"/>
    </edge>
    <edge id=":10458_0" function="internal">
        <lane id=":10458_0_0" index="0" speed="8.33" length="10.29" shape="858.45,2084.27 861.43,2084.75 863.53,2085.13 865.64,2085.42 868.64,2085.64"/>
    </edge>
    <edge id=":10458_1" function="internal">
        <lane id=":10458_1_0" index="0" speed="5.55" length="10.57" shape="858.82,2088.69 860.74,2087.23 863.02,2086.23 865.65,2085.70 868.64,2085.64"/>
    </edge>
    <edge id=":10459_0" function="internal">
        <lane id=":10459_0_0" index="0" speed="11.11" length="17.68" shape="879.23,2104.22 877.54,2107.44 875.77,2110.79 873.46,2114.64 870.14,2119.37"/>
        <lane id=":10459_0_1" index="1" speed="11.11" length="17.68" shape="879.23,2104.22 877.14,2107.15 874.49,2109.84 871.29,2113.03 867.58,2117.46"/>
    </edge>
    <edge id=":10459_2" function="internal">
        <lane id=":10459_2_0" index="0" speed="5.55" length="18.53" shape="879.23,2104.22 876.29,2108.26 872.72,2110.78 868.52,2111.78 863.70,2111.26"/>
    </edge>
    <edge id=":10510_0" function="internal">
        <lane id=":10510_0_0" index="0" speed="11.11" length="0.10" shape="693.33,2010.58 693.33,2010.58"/>
    </edge>
    <edge id=":10510_1" function="internal">
        <lane id=":10510_1_0" index="0" speed="11.11" length="4.67" shape="693.33,2010.58 692.59,2009.35 692.58,2008.45 693.28,2007.90 694.71,2007.70"/>
    </edge>
    <edge id=":10510_2" function="internal">
        <lane id=":10510_2_0" index="0" speed="11.11" length="0.10" shape="694.71,2007.70 694.71,2007.70"/>
    </edge>
    <edge id=":10510_3" function="internal">
        <lane id=":10510_3_0" index="0" speed="11.11" length="4.67" shape="694.71,2007.70 695.45,2008.93 695.46,2009.83 694.76,2010.38 693.33,2010.58"/>
    </edge>
    <edge id=":1677_0" function="internal">
        <lane id=":1677_0_0" index="0" speed="13.88" length="70.21" shape="2161.17,1876.26 2162.46,1887.01 2156.08,1907.40 2147.29,1928.76 2141.31,1942.43"/>
    </edge>
    <edge id=":1677_1" function="internal">
        <lane id=":1677_1_0" index="0" speed="13.88" length="65.96" shape="2135.16,1939.66 2147.92,1914.07 2156.30,1895.46 2160.28,1883.83 2159.87,1879.18"/>
    </edge>
    <edge id=":1677_2" function="internal">
        <lane id=":1677_2_0" index="0" speed="13.88" length="17.26" shape="2135.16,1939.66 2138.58,1935.04 2141.36,1934.24 2142.58,1936.84 2141.31,1942.43"/>
    </edge>
    <edge id=":1677_3" function="internal">
        <lane id=":1677_3_0" index="0" speed="13.88" length="65.85" shape="2138.37,1941.17 2148.96,1914.58 2156.08,1895.38 2159.71,1883.58 2159.87,1879.18"/>
    </edge>
    <edge id=":1677_4" function="internal">
        <lane id=":1677_4_0" index="0" speed="13.88" length="2.34" shape="2138.37,1941.17 2139.58,1940.38 2140.47,1940.33"/>
    </edge>
    <edge id=":1677_5" function="internal">
        <lane id=":1677_5_0" index="0" speed="13.88" length="2.34" shape="2140.47,1940.33 2141.05,1941.02 2141.31,1942.43"/>
    </edge>
    <edge id=":1680_0" function="internal">
        <lane id=":1680_0_0" index="0" speed="12.50" length="2.55" shape="1982.60,1800.35 1981.93,1800.16 1981.35,1800.23 1980.88,1800.56 1980.50,1801.14"/>
    </edge>
    <edge id=":1680_1" function="internal">
        <lane id=":1680_1_0" index="0" speed="12.50" length="7.65" shape="1977.59,1799.79 1978.73,1798.04 1980.16,1797.06 1981.89,1796.86 1983.90,1797.43"/>
    </edge>
    <edge id=":1722_0" function="internal">
        <lane id=":1722_0_0" index="0" speed="11.11" length="22.77" shape="2111.32,2016.12 2103.83,2037.62"/>
    </edge>
    <edge id=":1722_1" function="internal">
        <lane id=":1722_1_0" index="0" speed="13.88" length="22.63" shape="2111.32,2016.12 2109.17,2020.56 2106.13,2026.16 2103.07,2031.76 2100.84,2036.17"/>
    </edge>
    <edge id=":1723_0" function="internal">
        <lane id=":1723_0_0" index="0" speed="9.72" length="17.31" shape="2111.21,2077.79 2107.23,2076.46 2102.83,2074.90 2098.44,2073.88 2094.50,2074.13"/>
    </edge>
    <edge id=":1723_1" function="internal">
        <lane id=":1723_1_0" index="0" speed="9.72" length="9.95" shape="2103.21,2070.39 2105.56,2072.16 2107.30,2073.20 2109.20,2073.91 2112.04,2074.70"/>
    </edge>
    <edge id=":2168_0" function="internal">
        <lane id=":2168_0_0" index="0" speed="11.11" length="0.29" shape="1067.93,1165.34 1067.78,1165.59"/>
    </edge>
    <edge id=":2168_1" function="internal">
        <lane id=":2168_1_0" index="0" speed="11.11" length="2.34" shape="1067.93,1165.34 1066.62,1165.95 1065.73,1165.88"/>
    </edge>
    <edge id=":2168_4" function="internal">
        <lane id=":2168_4_0" index="0" speed="11.11" length="2.34" shape="1065.73,1165.88 1065.25,1165.13 1065.19,1163.68"/>
    </edge>
    <edge id=":2168_2" function="internal">
        <lane id=":2168_2_0" index="0" speed="11.11" length="0.31" shape="1065.03,1163.95 1065.19,1163.68"/>
    </edge>
    <edge id=":2168_3" function="internal">
        <lane id=":2168_3_0" index="0" speed="11.11" length="2.34" shape="1065.03,1163.95 1066.33,1163.33 1067.22,1163.40"/>
    </edge>
    <edge id=":2168_5" function="internal">
        <lane id=":2168_5_0" index="0" speed="11.11" length="2.34" shape="1067.22,1163.40 1067.71,1164.15 1067.78,1165.59"/>
    </edge>
    <edge id=":2184_0" function="internal">
        <lane id=":2184_0_0" index="0" speed="11.11" length="0.31" shape="979.82,1372.27 979.75,1372.58"/>
    </edge>
    <edge id=":2184_1" function="internal">
        <lane id=":2184_1_0" index="0" speed="11.11" length="2.34" shape="979.82,1372.27 978.79,1373.28 977.92,1373.51"/>
    </edge>
    <edge id=":2184_4" function="internal">
        <lane id=":2184_4_0" index="0" speed="11.11" length="2.34" shape="977.92,1373.51 977.22,1372.95 976.69,1371.61"/>
    </edge>
    <edge id=":2184_2" function="internal">
        <lane id=":2184_2_0" index="0" speed="11.11" length="0.29" shape="976.62,1371.90 976.69,1371.61"/>
    </edge>
    <edge id=":2184_3" function="internal">
        <lane id=":2184_3_0" index="0" speed="11.11" length="2.34" shape="976.62,1371.90 977.66,1370.89 978.53,1370.67"/>
    </edge>
    <edge id=":2184_5" function="internal">
        <lane id=":2184_5_0" index="0" speed="11.11" length="2.34" shape="978.53,1370.67 979.23,1371.23 979.75,1372.58"/>
    </edge>
    <edge id=":2210_0" function="internal">
        <lane id=":2210_0_0" index="0" speed="13.88" length="14.47" shape="865.94,959.06 855.93,969.51"/>
    </edge>
    <edge id=":2210_1" function="internal">
        <lane id=":2210_1_0" index="0" speed="12.50" length="14.91" shape="865.94,959.06 862.62,961.63 859.44,962.34 856.39,961.19 853.47,958.17"/>
    </edge>
    <edge id=":2210_2" function="internal">
        <lane id=":2210_2_0" index="0" speed="12.50" length="9.05" shape="856.06,956.30 857.84,958.13 859.69,958.83 861.62,958.40 863.63,956.84"/>
    </edge>
    <edge id=":2210_3" function="internal">
        <lane id=":2210_3_0" index="0" speed="12.50" length="14.51" shape="856.06,956.30 858.07,959.91 858.71,963.31 858.00,966.51 855.93,969.51"/>
    </edge>
    <edge id=":2210_4" function="internal">
        <lane id=":2210_4_0" index="0" speed="12.50" length="10.02" shape="853.61,967.30 854.97,965.28 855.41,963.09 854.91,960.72 853.47,958.17"/>
    </edge>
    <edge id=":2210_5" function="internal">
        <lane id=":2210_5_0" index="0" speed="13.88" length="14.49" shape="853.61,967.30 863.63,956.84"/>
    </edge>
    <edge id=":2227_0" function="internal">
        <lane id=":2227_0_0" index="0" speed="13.88" length="0.30" shape="625.52,1207.08 625.31,1207.29"/>
    </edge>
    <edge id=":2227_1" function="internal">
        <lane id=":2227_1_0" index="0" speed="13.88" length="2.34" shape="625.52,1207.08 624.11,1207.38 623.26,1207.11"/>
    </edge>
    <edge id=":2227_4" function="internal">
        <lane id=":2227_4_0" index="0" speed="13.88" length="2.34" shape="623.26,1207.11 622.96,1206.27 623.22,1204.85"/>
    </edge>
    <edge id=":2227_2" function="internal">
        <lane id=":2227_2_0" index="0" speed="13.88" length="0.30" shape="623.02,1205.06 623.22,1204.85"/>
    </edge>
    <edge id=":2227_3" function="internal">
        <lane id=":2227_3_0" index="0" speed="13.88" length="2.34" shape="623.02,1205.06 624.43,1204.76 625.28,1205.03"/>
    </edge>
    <edge id=":2227_5" function="internal">
        <lane id=":2227_5_0" index="0" speed="13.88" length="2.34" shape="625.28,1205.03 625.58,1205.88 625.31,1207.29"/>
    </edge>
    <edge id=":2386_0" function="internal">
        <lane id=":2386_0_0" index="0" speed="12.50" length="9.51" shape="1176.21,996.83 1173.83,996.05 1171.69,996.22 1169.80,997.34 1168.14,999.42"/>
    </edge>
    <edge id=":2386_1" function="internal">
        <lane id=":2386_1_0" index="0" speed="13.88" length="14.52" shape="1176.21,996.83 1163.26,990.27"/>
    </edge>
    <edge id=":2386_2" function="internal">
        <lane id=":2386_2_0" index="0" speed="12.50" length="11.04" shape="1176.21,996.83 1172.90,994.84 1170.83,992.83 1170.00,990.80 1170.42,988.74"/>
    </edge>
    <edge id=":2386_3" function="internal">
        <lane id=":2386_3_0" index="0" speed="11.11" length="10.59" shape="1173.28,990.16 1168.14,999.42"/>
    </edge>
    <edge id=":2386_4" function="internal">
        <lane id=":2386_4_0" index="0" speed="12.50" length="3.66" shape="1173.28,990.16 1171.88,991.73 1170.37,992.11"/>
    </edge>
    <edge id=":2386_5" function="internal">
        <lane id=":2386_5_0" index="0" speed="11.11" length="2.34" shape="1173.28,990.16 1172.03,990.88 1171.14,990.88"/>
    </edge>
    <edge id=":2386_8" function="internal">
        <lane id=":2386_8_0" index="0" speed="12.50" length="7.48" shape="1170.37,992.11 1169.74,992.27 1166.86,991.79 1163.26,990.27"/>
    </edge>
    <edge id=":2386_9" function="internal">
        <lane id=":2386_9_0" index="0" speed="11.11" length="2.34" shape="1171.14,990.88 1170.60,990.17 1170.42,988.74"/>
    </edge>
    <edge id=":2386_6" function="internal">
        <lane id=":2386_6_0" index="0" speed="12.50" length="9.04" shape="1165.40,997.77 1166.37,995.46 1166.34,993.44 1165.30,991.71 1163.26,990.27"/>
    </edge>
    <edge id=":2386_7" function="internal">
        <lane id=":2386_7_0" index="0" speed="11.11" length="10.33" shape="1165.40,997.77 1170.42,988.74"/>
    </edge>
    <edge id=":2410__0" function="internal">
        <lane id=":2410__0_0" index="0" speed="13.88" length="9.04" shape="971.06,858.60 969.12,857.03 967.17,856.50 965.21,856.99 963.23,858.52"/>
    </edge>
    <edge id=":2410__1" function="internal">
        <lane id=":2410__1_0" index="0" speed="13.88" length="14.44" shape="971.06,858.60 961.13,848.12"/>
    </edge>
    <edge id=":2410__2" function="internal">
        <lane id=":2410__2_0" index="0" speed="13.88" length="10.90" shape="971.06,858.60 968.62,855.57 967.33,852.98 967.21,850.85 968.26,849.16"/>
    </edge>
    <edge id=":2410__3" function="internal">
        <lane id=":2410__3_0" index="0" speed="13.88" length="10.00" shape="970.40,851.54 963.23,858.52"/>
    </edge>
    <edge id=":2410__4" function="internal">
        <lane id=":2410__4_0" index="0" speed="13.88" length="3.22" shape="970.40,851.54 968.62,852.40 967.39,852.24"/>
    </edge>
    <edge id=":2410__7" function="internal">
        <lane id=":2410__7_0" index="0" speed="13.88" length="7.63" shape="967.39,852.24 966.49,852.12 963.99,850.69 961.13,848.12"/>
    </edge>
    <edge id=":2410__5" function="internal">
        <lane id=":2410__5_0" index="0" speed="13.88" length="9.25" shape="960.93,856.29 962.47,854.21 963.01,852.16 962.57,850.13 961.13,848.12"/>
    </edge>
    <edge id=":2410__6" function="internal">
        <lane id=":2410__6_0" index="0" speed="13.88" length="10.22" shape="960.93,856.29 968.26,849.16"/>
    </edge>
    <edge id=":2496_0" function="internal">
        <lane id=":2496_0_0" index="0" speed="13.88" length="0.29" shape="1162.16,981.56 1162.42,981.70"/>
    </edge>
    <edge id=":6274_0" function="internal">
        <lane id=":6274_0_0" index="0" speed="11.11" length="0.30" shape="1518.11,2045.35 1517.84,2045.23"/>
    </edge>
    <edge id=":6276_0" function="internal">
        <lane id=":6276_0_0" index="0" speed="11.11" length="13.31" shape="1486.84,1972.28 1490.77,1973.92 1494.21,1974.87 1497.17,1975.12 1499.64,1974.67"/>
    </edge>
    <edge id=":6276_1" function="internal">
        <lane id=":6276_1_0" index="0" speed="13.88" length="12.99" shape="1486.84,1972.28 1489.89,1973.86 1492.52,1975.42 1495.10,1977.08 1498.01,1978.91"/>
    </edge>
    <edge id=":6277_0" function="internal">
        <lane id=":6277_0_0" index="0" speed="22.21" length="8.55" shape="1291.66,1383.45 1290.50,1385.47 1289.38,1386.69 1288.32,1387.93 1287.29,1390.01"/>
        <lane id=":6277_0_1" index="1" speed="22.21" length="8.55" shape="1291.66,1383.45 1289.95,1385.47 1287.87,1386.13 1285.84,1386.82 1284.28,1388.90"/>
        <lane id=":6277_0_2" index="2" speed="22.21" length="8.55" shape="1288.74,1382.15 1287.55,1384.23 1286.42,1385.49 1285.34,1386.77 1284.28,1388.90"/>
    </edge>
    <edge id=":6277_3" function="internal">
        <lane id=":6277_3_0" index="0" speed="27.77" length="8.30" shape="1288.74,1382.15 1288.23,1384.52 1288.64,1386.31 1289.03,1388.10 1288.49,1390.45"/>
        <lane id=":6277_3_1" index="1" speed="27.77" length="8.30" shape="1288.74,1382.15 1285.48,1389.34"/>
        <lane id=":6277_3_2" index="2" speed="27.77" length="8.30" shape="1285.81,1380.85 1285.28,1383.28 1285.67,1385.11 1286.04,1386.94 1285.48,1389.34"/>
        <lane id=":6277_3_3" index="3" speed="27.77" length="8.30" shape="1285.81,1380.85 1282.47,1388.23"/>
    </edge>
    <edge id=":6280_0" function="internal">
        <lane id=":6280_0_0" index="0" speed="9.72" length="3.79" shape="1838.84,2107.42 1838.39,2108.44 1838.16,2109.18 1838.12,2109.96 1838.19,2111.08"/>
    </edge>
    <edge id=":6280_1" function="internal">
        <lane id=":6280_1_0" index="0" speed="9.72" length="5.95" shape="1833.01,2111.11 1834.27,2109.95 1834.88,2108.92 1835.29,2107.72 1835.94,2106.07"/>
    </edge>
    <edge id=":6281_0" function="internal">
        <lane id=":6281_0_0" index="0" speed="15.27" length="9.96" shape="865.02,1676.74 866.11,1679.48 867.10,1681.34 868.57,1682.74 871.09,1684.12"/>
    </edge>
    <edge id=":6281_1" function="internal">
        <lane id=":6281_1_0" index="0" speed="22.22" length="10.51" shape="861.76,1679.50 871.09,1684.12"/>
        <lane id=":6281_1_1" index="1" speed="22.22" length="10.51" shape="860.32,1682.37 869.75,1687.02"/>
        <lane id=":6281_1_2" index="2" speed="22.22" length="10.51" shape="858.89,1685.23 868.41,1689.92"/>
    </edge>
    <edge id=":6287_0" function="internal">
        <lane id=":6287_0_0" index="0" speed="24.99" length="54.93" shape="890.33,2181.68 895.72,2167.83 899.73,2153.97 903.18,2140.88 906.91,2129.37"/>
    </edge>
    <edge id=":6287_1" function="internal">
        <lane id=":6287_1_0" index="0" speed="24.99" length="55.06" shape="890.33,2181.68 910.00,2130.26"/>
    </edge>
    <edge id=":6287_2" function="internal">
        <lane id=":6287_2_0" index="0" speed="27.77" length="55.72" shape="890.33,2181.68 916.37,2132.42"/>
    </edge>
    <edge id=":6287_3" function="internal">
        <lane id=":6287_3_0" index="0" speed="24.99" length="55.43" shape="890.33,2181.68 913.10,2131.14"/>
    </edge>
    <edge id=":6287_4" function="internal">
        <lane id=":6287_4_0" index="0" speed="27.77" length="55.89" shape="893.23,2183.04 900.39,2169.82 908.38,2157.40 916.01,2145.84 922.11,2135.23"/>
    </edge>
    <edge id=":6287_5" function="internal">
        <lane id=":6287_5_0" index="0" speed="24.99" length="10.80" shape="893.23,2183.04 896.81,2172.85"/>
    </edge>
    <edge id=":6287_6" function="internal">
        <lane id=":6287_6_0" index="0" speed="27.77" length="55.66" shape="893.23,2183.04 916.37,2132.42"/>
        <lane id=":6287_6_1" index="1" speed="27.77" length="55.66" shape="893.23,2183.04 919.24,2133.82"/>
    </edge>
    <edge id=":6287_8" function="internal">
        <lane id=":6287_8_0" index="0" speed="24.99" length="13.94" shape="893.23,2183.04 898.29,2170.05"/>
    </edge>
    <edge id=":6287_9" function="internal">
        <lane id=":6287_9_0" index="0" speed="24.99" length="13.28" shape="893.23,2183.04 897.98,2170.64"/>
    </edge>
    <edge id=":6287_10" function="internal">
        <lane id=":6287_10_0" index="0" speed="24.99" length="12.76" shape="896.13,2184.40 900.76,2172.51"/>
    </edge>
    <edge id=":6287_11" function="internal">
        <lane id=":6287_11_0" index="0" speed="27.77" length="55.67" shape="896.13,2184.40 916.37,2132.42"/>
        <lane id=":6287_11_1" index="1" speed="27.77" length="55.67" shape="896.13,2184.40 919.24,2133.82"/>
        <lane id=":6287_11_2" index="2" speed="27.77" length="55.67" shape="896.13,2184.40 922.11,2135.23"/>
    </edge>
    <edge id=":6287_14" function="internal">
        <lane id=":6287_14_0" index="0" speed="24.99" length="10.09" shape="896.13,2184.40 899.47,2174.88"/>
    </edge>
    <edge id=":6287_15" function="internal">
        <lane id=":6287_15_0" index="0" speed="27.77" length="56.15" shape="899.02,2185.76 904.39,2171.67 908.40,2157.34 912.06,2143.89 916.37,2132.42"/>
    </edge>
    <edge id=":6287_16" function="internal">
        <lane id=":6287_16_0" index="0" speed="24.99" length="10.84" shape="899.02,2185.76 902.62,2175.53"/>
    </edge>
    <edge id=":6287_17" function="internal">
        <lane id=":6287_17_0" index="0" speed="27.77" length="55.64" shape="899.02,2185.76 919.24,2133.82"/>
        <lane id=":6287_17_1" index="1" speed="27.77" length="55.64" shape="899.02,2185.76 922.11,2135.23"/>
    </edge>
    <edge id=":6287_19" function="internal">
        <lane id=":6287_19_0" index="0" speed="24.99" length="44.69" shape="896.81,2172.85 898.17,2168.98 901.18,2154.64 903.64,2141.10 906.91,2129.37"/>
    </edge>
    <edge id=":6287_20" function="internal">
        <lane id=":6287_20_0" index="0" speed="24.99" length="41.49" shape="898.29,2170.05 898.65,2169.11 902.73,2155.09 906.24,2141.84 910.00,2130.26"/>
    </edge>
    <edge id=":6287_21" function="internal">
        <lane id=":6287_21_0" index="0" speed="24.99" length="42.29" shape="897.98,2170.64 913.10,2131.14"/>
    </edge>
    <edge id=":6287_22" function="internal">
        <lane id=":6287_22_0" index="0" speed="24.99" length="43.18" shape="900.76,2172.51 901.58,2170.40 905.72,2156.21 909.31,2142.80 913.10,2131.14"/>
    </edge>
    <edge id=":6287_23" function="internal">
        <lane id=":6287_23_0" index="0" speed="24.99" length="45.90" shape="899.47,2174.88 901.10,2170.26 904.18,2155.77 906.70,2142.05 910.00,2130.26"/>
    </edge>
    <edge id=":6287_24" function="internal">
        <lane id=":6287_24_0" index="0" speed="24.99" length="45.66" shape="902.62,2175.53 904.03,2171.54 907.17,2156.89 909.76,2143.01 913.10,2131.14"/>
    </edge>
    <edge id=":6289_0" function="internal">
        <lane id=":6289_0_0" index="0" speed="22.21" length="8.21" shape="1265.44,1379.87 1266.34,1377.64 1266.60,1375.97 1266.82,1374.28 1267.63,1372.01"/>
        <lane id=":6289_0_1" index="1" speed="22.21" length="8.21" shape="1268.35,1381.22 1269.25,1379.00 1269.49,1377.33 1269.71,1375.66 1270.52,1373.39"/>
        <lane id=":6289_0_2" index="2" speed="22.21" length="8.21" shape="1268.35,1381.22 1269.70,1379.21 1270.94,1378.03 1272.14,1376.83 1273.41,1374.78"/>
    </edge>
    <edge id=":6289_3" function="internal">
        <lane id=":6289_3_0" index="0" speed="27.77" length="8.41" shape="1264.21,1379.30 1267.63,1372.01"/>
        <lane id=":6289_3_1" index="1" speed="27.77" length="8.41" shape="1264.21,1379.30 1265.69,1377.27 1267.34,1376.34 1269.00,1375.41 1270.52,1373.39"/>
        <lane id=":6289_3_2" index="2" speed="27.77" length="8.41" shape="1267.11,1380.64 1270.52,1373.39"/>
        <lane id=":6289_3_3" index="3" speed="27.77" length="8.41" shape="1267.11,1380.64 1268.59,1378.62 1270.24,1377.70 1271.89,1376.78 1273.41,1374.78"/>
        <lane id=":6289_3_4" index="4" speed="27.77" length="8.41" shape="1270.02,1381.99 1270.59,1379.54 1270.25,1377.68 1269.91,1375.82 1270.52,1373.39"/>
        <lane id=":6289_3_5" index="5" speed="27.77" length="8.41" shape="1270.02,1381.99 1273.41,1374.78"/>
    </edge>
    <edge id=":6304_0" function="internal">
        <lane id=":6304_0_0" index="0" speed="12.50" length="9.81" shape="437.38,1411.74 437.01,1414.48 436.94,1416.37 437.09,1418.27 437.39,1421.03"/>